12
9.mopin
C          0.00000        0.00000        0.00000
C          1.39483        0.00000        0.00000
C          2.09238        0.00000        1.20826
C          1.39517       -0.00068        2.41620
C         -0.00026       -0.00017        2.41623
C         -0.69757        0.00031        1.20823
Cl        -1.66262        0.00054       -2.87882
H          1.94471        0.00009       -0.95225
H          3.19204       -0.00078        1.20792
H          1.94492       -0.00132        3.36861
H         -0.54976       -0.00064        3.36878
H         -1.79733        0.00073        1.20792
