12
1.mopin
C          0.00000        0.00000        0.00000
C          1.39483        0.00000        0.00000
C          2.09238        0.00000        1.20826
C          1.39517       -0.00068        2.41620
C         -0.00026       -0.00017        2.41623
C         -0.69757        0.00031        1.20823
Cl        -0.88021        0.00029       -1.52408
H          1.94471        0.00009       -0.95225
H          3.19204       -0.00078        1.20792
H          1.94492       -0.00132        3.36861
H         -0.54976       -0.00064        3.36878
H         -1.79733        0.00073        1.20792
12
2.mopin
C          0.00000        0.00000        0.00000
C          1.39483        0.00000        0.00000
C          2.09238        0.00000        1.20826
C          1.39517       -0.00068        2.41620
C         -0.00026       -0.00017        2.41623
C         -0.69757        0.00031        1.20823
Cl        -0.97802        0.00032       -1.69343
H          1.94471        0.00009       -0.95225
H          3.19204       -0.00078        1.20792
H          1.94492       -0.00132        3.36861
H         -0.54976       -0.00064        3.36878
H         -1.79733        0.00073        1.20792
12
3.mopin
C          0.00000        0.00000        0.00000
C          1.39483        0.00000        0.00000
C          2.09238        0.00000        1.20826
C          1.39517       -0.00068        2.41620
C         -0.00026       -0.00017        2.41623
C         -0.69757        0.00031        1.20823
Cl        -1.07582        0.00035       -1.86277
H          1.94471        0.00009       -0.95225
H          3.19204       -0.00078        1.20792
H          1.94492       -0.00132        3.36861
H         -0.54976       -0.00064        3.36878
H         -1.79733        0.00073        1.20792
12
4.mopin
C          0.00000        0.00000        0.00000
C          1.39483        0.00000        0.00000
C          2.09238        0.00000        1.20826
C          1.39517       -0.00068        2.41620
C         -0.00026       -0.00017        2.41623
C         -0.69757        0.00031        1.20823
Cl        -1.17362        0.00038       -2.03211
H          1.94471        0.00009       -0.95225
H          3.19204       -0.00078        1.20792
H          1.94492       -0.00132        3.36861
H         -0.54976       -0.00064        3.36878
H         -1.79733        0.00073        1.20792
12
5.mopin
C          0.00000        0.00000        0.00000
C          1.39483        0.00000        0.00000
C          2.09238        0.00000        1.20826
C          1.39517       -0.00068        2.41620
C         -0.00026       -0.00017        2.41623
C         -0.69757        0.00031        1.20823
Cl        -1.27142        0.00042       -2.20145
H          1.94471        0.00009       -0.95225
H          3.19204       -0.00078        1.20792
H          1.94492       -0.00132        3.36861
H         -0.54976       -0.00064        3.36878
H         -1.79733        0.00073        1.20792
12
6.mopin
C          0.00000        0.00000        0.00000
C          1.39483        0.00000        0.00000
C          2.09238        0.00000        1.20826
C          1.39517       -0.00068        2.41620
C         -0.00026       -0.00017        2.41623
C         -0.69757        0.00031        1.20823
Cl        -1.36922        0.00045       -2.37080
H          1.94471        0.00009       -0.95225
H          3.19204       -0.00078        1.20792
H          1.94492       -0.00132        3.36861
H         -0.54976       -0.00064        3.36878
H         -1.79733        0.00073        1.20792
12
7.mopin
C          0.00000        0.00000        0.00000
C          1.39483        0.00000        0.00000
C          2.09238        0.00000        1.20826
C          1.39517       -0.00068        2.41620
C         -0.00026       -0.00017        2.41623
C         -0.69757        0.00031        1.20823
Cl        -1.46702        0.00048       -2.54013
H          1.94471        0.00009       -0.95225
H          3.19204       -0.00078        1.20792
H          1.94492       -0.00132        3.36861
H         -0.54976       -0.00064        3.36878
H         -1.79733        0.00073        1.20792
12
8.mopin
C          0.00000        0.00000        0.00000
C          1.39483        0.00000        0.00000
C          2.09238        0.00000        1.20826
C          1.39517       -0.00068        2.41620
C         -0.00026       -0.00017        2.41623
C         -0.69757        0.00031        1.20823
Cl        -1.56482        0.00051       -2.70948
H          1.94471        0.00009       -0.95225
H          3.19204       -0.00078        1.20792
H          1.94492       -0.00132        3.36861
H         -0.54976       -0.00064        3.36878
H         -1.79733        0.00073        1.20792
12
9.mopin
C          0.00000        0.00000        0.00000
C          1.39483        0.00000        0.00000
C          2.09238        0.00000        1.20826
C          1.39517       -0.00068        2.41620
C         -0.00026       -0.00017        2.41623
C         -0.69757        0.00031        1.20823
Cl        -1.66262        0.00054       -2.87882
H          1.94471        0.00009       -0.95225
H          3.19204       -0.00078        1.20792
H          1.94492       -0.00132        3.36861
H         -0.54976       -0.00064        3.36878
H         -1.79733        0.00073        1.20792
12
10.mopin
C          0.00000        0.00000        0.00000
C          1.39483        0.00000        0.00000
C          2.09238        0.00000        1.20826
C          1.39517       -0.00068        2.41620
C         -0.00026       -0.00017        2.41623
C         -0.69757        0.00031        1.20823
Cl        -1.76043        0.00058       -3.04816
H          1.94471        0.00009       -0.95225
H          3.19204       -0.00078        1.20792
H          1.94492       -0.00132        3.36861
H         -0.54976       -0.00064        3.36878
H         -1.79733        0.00073        1.20792
